$# LS-DYNA Keyword file created by LS-PrePost(R) V4.10.5-23Jun2023
$# Created on Dec-25-2023 (09:39:09)
*KEYWORD
*TITLE
$#                                                                         title
LS-DYNA keyword deck by LS-PrePost
*CONTROL_ALE
$#     dct      nadv      meth      afac      bfac      cfac      dfac      efac
         2       100         1       0.0       0.0       0.0       1.0       0.0
$#   start       end     aafac     vfact      prit       ebc      pref   nsidebc
       0.01.00000E20       1.0       0.0         0         0       0.0         0
$#    ncpl      nbkt    imascl    checkr    beamin   mmgpref    pdifmx   dtmufac
         1        50         0       0.0       0.0         0       0.0       0.0
$# optimpp    ialedr    bndflx    minmas
         0         0         01.00000E-5
*CONTROL_ENERGY
$#    hgen      rwen    slnten     rylen     irgen     maten     drlen     disen
         2         2         2         2         2         1         1         1
*CONTROL_SHELL
$#  wrpang     esort     irnxx    istupd    theory       bwc     miter      proj
      20.0         1        -1         1         2         2         1         0
$# rotascl    intgrd    lamsht    cstyp6    thshel
       1.0         0         0         1         0
$# psstupd   sidt4tu     cntco    itsflg    irquad    w-mode   stretch      icrq
         0         0         0         0         2       0.0       0.0         0
$#  nfail1    nfail4   psnfail    keepcs     delfr   drcpsid    drcprm   intperr
         0         0         0         0         0         0       1.0         0
*CONTROL_TIMESTEP
$#  dtinit    tssfac      isdo    tslimt     dt2ms      lctm     erode     ms1st
       0.0       0.6         0       0.0       0.0         0         0         0
$#  dt2msf   dt2mslc     imscl    unused    unused     rmscl     emscl      ihdo

*DATABASE_EXTENT_BINARY
$#   neiph     neips    maxint    strflg    sigflg    epsflg    rltflg    engflg
         5         5         3         1         1         1         1         1
$#  cmpflg    ieverp    beamip     dcomp      shge     stssz    n3thdt   ialemat
         0         0         4         1         1         1         2         1
$# nintsld   pkp_sen      sclp     hydro     msscl     therm    intout    nodout
         0         0       1.0         0         0         0STRESS    STRESS
$#    dtdt    resplt     neipb   quadsld    cubsld   deleres
         0         0         0         0         0         0
*CONTACT_2D_AUTOMATIC_SINGLE_SURFACE_TITLE
$#     cid                                                                 title
         1                                                                      
$#   surfa     surfb     sfact      freq        fs        fd        dc         -
         0         0       1.0         1       0.1       0.0       0.0          
$#  tbirth    tdeath       soa       sob       nda       ndb       cof      init
       0.01.000000E7       1.0       1.0         0         0         0         0
*MAT_RIGID_TITLE
rigid_ indent
$#     mid        ro         e        pr         n    couple         m     alias
         2    0.0153  185000.0      0.28       0.0       0.0       0.0          
$#     cmo      con1      con2
       1.0         1         3
$#lco or a1        a2        a3        v1        v2        v3
       0.0       0.0       0.0       0.0       0.0       0.0
*PART
$#                                                                         title

$#     pid     secid       mid     eosid      hgid      grav    adpopt      tmid
         1         1         1         0         0         0         0         0
*SECTION_SHELL
$#   secid    elform      shrf       nip     propt   qr/irid     icomp     setyp
         1        15       1.0         1       1.0         0         0         1
$#      t1        t2        t3        t4      nloc     marea      idof    edgset
       0.0       0.0       0.0       0.0       0.0       0.0       0.0         0
*BOUNDARY_SPC_SET
$#    nsid       cid      dofx      dofy      dofz     dofrx     dofry     dofrz
         1         0         1         1         0         0         0         0
$#    nsid       cid      dofx      dofy      dofz     dofrx     dofry     dofrz
         2         0         1         0         0         0         0         0
*BOUNDARY_PRESCRIBED_MOTION_SET
$#    nsid       dof       vad      lcid        sf       vid     death     birth
         2         2         0        99       1.0         01.00000E28       0.0
*PART
$#                                                                         title

$#     pid     secid       mid     eosid      hgid      grav    adpopt      tmid
         2         1         2         0         0         0         0         0
*ELEMENT_SHELL
$#   eid     pid      n1      n2      n3      n4      n5      n6      n7      n8
       1       1       1      10     292     131       0       0       0       0
       2       1      10      11     293     292       0       0       0       0
       3       1      11      12     294     293       0       0       0       0
       4       1      12      13     295     294       0       0       0       0
       5       1      13      14     296     295       0       0       0       0
       6       1      14      15     297     296       0       0       0       0
       7       1      15      16     298     297       0       0       0       0
       8       1      16      17     299     298       0       0       0       0
       9       1      17      18     300     299       0       0       0       0
      10       1      18      19     301     300       0       0       0       0
      11       1      19      20     302     301       0       0       0       0
      12       1      20      21     303     302       0       0       0       0
      13       1      21      22     304     303       0       0       0       0
      14       1      22      23     305     304       0       0       0       0
      15       1      23      24     306     305       0       0       0       0
      16       1      24      25     307     306       0       0       0       0
      17       1      25      26     308     307       0       0       0       0
      18       1      26      27     309     308       0       0       0       0
      19       1      27      28     310     309       0       0       0       0
      20       1      28      29     311     310       0       0       0       0
$ ... 2212 like lines cut
*NODE
$#   nid               x               y               z      tc      rc
       1             6.0          21.014             0.0       0       0
       2             6.0          35.014             0.0       0       0
       3             0.0          35.014             0.0       0       0
       4             0.0          21.014             0.0       0       0
       5            10.0          21.014             0.0       0       0
       6            10.0          35.014             0.0       0       0
       7             6.0          15.014             0.0       0       0
       8             0.0          15.014             0.0       0       0
       9            10.0          15.014             0.0       0       0
      10             6.0          21.264             0.0       0       0
      11             6.0        21.51853             0.0       0       0
      12             6.0        21.77768             0.0       0       0
      13             6.0        22.04153             0.0       0       0
      14             6.0        22.31016             0.0       0       0
      15             6.0        22.58366             0.0       0       0
      16             6.0        22.86212             0.0       0       0
      17             6.0        23.14563             0.0       0       0
      18             6.0        23.43428             0.0       0       0
      19             6.0        23.72817             0.0       0       0
      20             6.0        24.02738             0.0       0       0
$ ... 2321 like lines cut
*SECTION_SHELL
$#   secid    elform      shrf       nip     propt   qr/irid     icomp     setyp
         2        15       1.0         1       1.0         0         0         3
$#      t1        t2        t3        t4      nloc     marea      idof    edgset
       0.0       0.0       0.0       0.0       0.0       0.0       0.0         0
*SET_NODE_LIST
$#     sid       da1       da2       da3       da4    solver       its         -
         2       0.0       0.0       0.0       0.0MECH      1                  
$#    nid1      nid2      nid3      nid4      nid5      nid6      nid7      nid8
      2305
*SET_NODE_LIST
$#     sid       da1       da2       da3       da4    solver       its         -
         1       0.0       0.0       0.0       0.0MECH      1                  
$#    nid1      nid2      nid3      nid4      nid5      nid6      nid7      nid8
         2         3         6        48        49        50        51        52
        53        54        55        56        57        58        59        60
        61        62        63        64        65        66        67        68
        69        70       180       181       182       183       184       185
       186       187       188       189         0         0         0         0
*END
